CM
SY K = -0.0096
SY DR = 0.1247+K
SY DE = 0.1139
SY D1 = 0.1116+K
SY D2 = 0.1102+K
SY D3 = 0.1087+K
SY D4 = 0.1073+K
SY D5 = 0.1060+K
SY D6 = 0.1050+K
SY D7 = 0.1041+K
SY D8 = 0.1033+K
SY PR = 0
SY PE = 0.0522
SY P1 = 0.0718
SY P2 = 0.1118
SY P3 = 0.1638
SY P4 = 0.2241
SY P5 = 0.2911
SY P6 = 0.3634
SY P7 = 0.4402
SY P8 = 0.5210
CE
GW	1	23	-DR/2	PR	0	DR/2	PR	0	0.0015
GW	2	23	-DE/2	PE	0	DE/2	PE	0	0.0015
GW	3	23	-D1/2	P1	0	D1/2	P1	0	0.0015
GW	4	19	-D2/2	P2	0	D2/2	P2	0	0.0015
GW	5	19	-D3/2	P3	0	D3/2	P3	0	0.0015
GW	6	19	-D4/2	P4	0	D4/2	P4	0	0.0015
GW	7	19	-D5/2	P5	0	D5/2	P5	0	0.0015
GW	8	19	-D6/2	P6	0	D6/2	P6	0	0.0015
GW	9	19	-D7/2	P7	0	D7/2	P7	0	0.0015
GW	10	19	-D8/2	P8	0	D8/2	P8	0	0.0015
GE	0
EK
EX	0	2	12	0	1	0
FR	0	1	0	0	1242.5	.5
RP	0	73	73	0000	0	0	5	5
EN
